Copy osmNetconvert.typ.xml from C:\Program Files (x86)\Eclipse\Sumo\data\typemap into the working folder.

Copy randomTrips.py from C:\Program Files (x86)\Eclipse\Sumo\tools into the working directory.

Open street maps, select a particular region, and expost as map.osm into the working directory.

In a text editor, create a file that contains all the vehicle types that will be used during the simulation time. This file could be named as additional.type.xml and it should look like this:
<additional>
    <vTypeDistribution id="typedist1">
        <vType id="pas" vClass="passenger" impatience="0" probability="0.85" laneChangeModel="SL2015" maxSpeed="10" speedFactor="normc(1,0.1,0.2,2)" lcSublane="100"/>
        <vType id="amb" vClass="emergency" impatience="10" probability="0.15" laneChangeModel="SL2015" maxSpeed="20" speedFactor="2" color="1,0,0" lcStrategic="100" lcSpeedGain="100" lcSublane="100" lcPushy="1" lcImpatience="1"/>
    </vTypeDistribution>
 </additional>

Run on CMD : netconvert --osm-files map.osm -o test.net.xml -t osmNetconvert.typ.xml --xml-validation never
!Annotate the above so you clearly understand whats happening
Comment, the above will convert osm file (called map.osm) into SUMO file (called test.net.xml)

Run on CMD : polyconvert --osm-files map.osm --net-file test.net.xml -o map.poly.xml
!Annotate the above so you clearly understand whats happening
Comment, will create _ file )called map.poly.xml)

Run on CMD : python randomTrips.py --net-file=test.net.xml --additional-files=additional.type.xml --output-trip-file=mapVehicles.trips.xml --route-file=mapVehicles.rou.xml --begin=0 --end=2000 --verbose --trip-attributes="type=\"typedist\" departLane=\"best\" departSpeed=\"max\" departPos=\"random\""

Run on CMD : python randomTrips.py --net-file=test.net.xml --additional-files=additional.type.xml --output-trip-file=mapPedestrian.trips.xml --route-file=mapPedestrian.rou.xml --begin=0 --end=2000 --verbose --pedestrians

In a text editor, create a SUMO configuration file which has as an input the files obtained from the instructions above, and save it in the working directory as map.sumocfg : 

<configuration xmlns:xsi="http://www.w3.org/2001/XMLSchema-instance" xsi:noNamespaceSchemaLocation="http://sumo.dlr.de/xsd/sumoConfiguration.xsd">
    <input>
        <net-file value="test.net.xml"/>
        <route-files value="mapVehicles.rou.xml,mapPedestrians.rou.xml"/>
		<additional-files value="map.poly.xml"/>
    </input>
    <processing>
        <ignore-route-errors value="true"/>
    </processing>
    <routing>
        <device.rerouting.adaptation-steps value="180"/>
    </routing>
</configuration>

Open SumoGui, and open map file in working directory.


Modify the simSettings.m file in the root folder of DRIVE:
SIMULATOR.sumoPath should point to the SUMO_HOME path, as configured during SUMO's installation.

SIMULATOR.scenario can be modified to show to the required scenario function (currently being found in modeToolbox directory).

SIMULATOR.parallelRun can be modified to choose parallel or serial execution of the framework.

sumo.routeFile should point to map.sumocfg SUMO configuration file generated in Step 2.6.

map.file should point to the OpenStreetMap XML file downloaded in Step 1.3.

The rest of the configuration parameters can be changed accordingly to the user's requirements.
In simSettings.m file, change the sumo.vehicleTypes and sumo.vehicleTypeAbbreviation based on the vehicle types generated in Step 2.3.