<additional>

    <rerouter id="Rerouter 0" edges="E1" probability="1">
        <interval begin="0" end="1000">
            <destProbReroute id="E2"/>
        </interval>
    </rerouter>

    <rerouter id="Rerouter 1" edges="E2" probability="1">
        <interval begin="0" end="1000">
            <destProbReroute id="E1"/>
        </interval>
    </rerouter>

</additional>

<!-- Will create two rerouters, first to send from first edge to second, the second will send from second edge all the around, and back to first. Begin at first loop, end at 1000 simulation time steps. Check what probability does -->