<?xml version="1.0" encoding="UTF-8"?>


<net version="1.6" junctionCornerDetail="5" limitTurnSpeed="5.50" xmlns:xsi="http://www.w3.org/2001/XMLSchema-instance" xsi:noNamespaceSchemaLocation="http://sumo.dlr.de/xsd/net_file.xsd">

    <location netOffset="-526019.91,-5700038.92" convBoundary="0.00,0.00,1380.15,1415.50" origBoundary="-2.625503,51.450887,-2.605665,51.463636" projParameter="+proj=utm +zone=30 +ellps=WGS84 +datum=WGS84 +units=m +no_defs"/>

    <type id="highway.bridleway" priority="1" numLanes="1" speed="2.78" allow="pedestrian" oneway="1" width="2.00"/>
    <type id="highway.bus_guideway" priority="1" numLanes="1" speed="27.78" allow="bus" oneway="1"/>
    <type id="highway.cycleway" priority="1" numLanes="1" speed="8.33" allow="bicycle" oneway="0" width="1.00"/>
    <type id="highway.footway" priority="1" numLanes="1" speed="2.78" allow="pedestrian" oneway="1" width="2.00"/>
    <type id="highway.ford" priority="1" numLanes="1" speed="2.78" allow="army" oneway="0"/>
    <type id="highway.living_street" priority="2" numLanes="1" speed="2.78" disallow="tram rail_urban rail rail_electric rail_fast ship" oneway="0"/>
    <type id="highway.motorway" priority="14" numLanes="2" speed="39.44" allow="private emergency authority army vip passenger hov taxi bus coach delivery truck trailer motorcycle evehicle custom1 custom2" oneway="1"/>
    <type id="highway.motorway_link" priority="9" numLanes="1" speed="22.22" allow="private emergency authority army vip passenger hov taxi bus coach delivery truck trailer motorcycle evehicle custom1 custom2" oneway="1"/>
    <type id="highway.path" priority="1" numLanes="1" speed="2.78" allow="pedestrian bicycle" oneway="1" width="2.00"/>
    <type id="highway.pedestrian" priority="1" numLanes="1" speed="2.78" allow="pedestrian" oneway="1" width="2.00"/>
    <type id="highway.primary" priority="12" numLanes="2" speed="27.78" disallow="tram rail_urban rail rail_electric rail_fast ship" oneway="0"/>
    <type id="highway.primary_link" priority="7" numLanes="1" speed="22.22" disallow="tram rail_urban rail rail_electric rail_fast ship" oneway="0"/>
    <type id="highway.raceway" priority="15" numLanes="2" speed="83.33" allow="vip" oneway="0"/>
    <type id="highway.residential" priority="3" numLanes="1" speed="13.89" disallow="tram rail_urban rail rail_electric rail_fast ship" oneway="0"/>
    <type id="highway.secondary" priority="11" numLanes="1" speed="27.78" disallow="tram rail_urban rail rail_electric rail_fast ship" oneway="0"/>
    <type id="highway.secondary_link" priority="6" numLanes="1" speed="22.22" disallow="tram rail_urban rail rail_electric rail_fast ship" oneway="0"/>
    <type id="highway.service" priority="1" numLanes="1" speed="5.56" allow="pedestrian delivery bicycle" oneway="0"/>
    <type id="highway.stairs" priority="1" numLanes="1" speed="1.39" allow="pedestrian" oneway="1" width="2.00"/>
    <type id="highway.step" priority="1" numLanes="1" speed="1.39" allow="pedestrian" oneway="1" width="2.00"/>
    <type id="highway.steps" priority="1" numLanes="1" speed="1.39" allow="pedestrian" oneway="1" width="2.00"/>
    <type id="highway.tertiary" priority="10" numLanes="1" speed="22.22" disallow="tram rail_urban rail rail_electric rail_fast ship" oneway="0"/>
    <type id="highway.tertiary_link" priority="5" numLanes="1" speed="22.22" disallow="tram rail_urban rail rail_electric rail_fast ship" oneway="0"/>
    <type id="highway.track" priority="1" numLanes="1" speed="5.56" allow="pedestrian motorcycle moped bicycle" oneway="0"/>
    <type id="highway.trunk" priority="13" numLanes="2" speed="27.78" disallow="pedestrian bicycle tram rail_urban rail rail_electric rail_fast ship" oneway="0"/>
    <type id="highway.trunk_link" priority="8" numLanes="1" speed="22.22" disallow="pedestrian bicycle tram rail_urban rail rail_electric rail_fast ship" oneway="0"/>
    <type id="highway.unclassified" priority="4" numLanes="1" speed="13.89" disallow="tram rail_urban rail rail_electric rail_fast ship" oneway="0"/>
    <type id="highway.unsurfaced" priority="1" numLanes="1" speed="8.33" disallow="tram rail_urban rail rail_electric rail_fast ship" oneway="0"/>
    <type id="railway.highspeed" priority="21" numLanes="1" speed="69.44" allow="rail_fast" oneway="1"/>
    <type id="railway.light_rail" priority="19" numLanes="1" speed="27.78" allow="rail_urban" oneway="1"/>
    <type id="railway.preserved" priority="16" numLanes="1" speed="27.78" allow="rail" oneway="1"/>
    <type id="railway.rail" priority="20" numLanes="1" speed="44.44" allow="rail" oneway="1"/>
    <type id="railway.subway" priority="18" numLanes="1" speed="27.78" allow="rail_urban" oneway="1"/>
    <type id="railway.tram" priority="17" numLanes="1" speed="13.89" allow="tram" oneway="1"/>

    <edge id=":1015346535_0" function="internal">
        <lane id=":1015346535_0_0" index="0" disallow="tram rail_urban rail rail_electric rail_fast ship" speed="4.87" length="7.56" shape="699.40,502.57 696.99,502.70 695.91,503.43 696.16,504.77 697.73,506.70"/>
    </edge>
    <edge id=":1015346535_1" function="internal">
        <lane id=":1015346535_1_0" index="0" disallow="tram rail_urban rail rail_electric rail_fast ship" speed="8.94" length="7.29" shape="699.40,502.57 697.20,502.63 695.58,502.75 694.17,502.43 692.61,501.16"/>
    </edge>
    <edge id=":1015346535_2" function="internal">
        <lane id=":1015346535_2_0" index="0" disallow="tram rail_urban rail rail_electric rail_fast ship" speed="8.94" length="8.39" shape="694.98,499.00 696.16,501.08 696.30,502.90 696.47,504.71 697.73,506.70"/>
    </edge>
    <edge id=":1015346535_3" function="internal">
        <lane id=":1015346535_3_0" index="0" disallow="tram rail_urban rail rail_electric rail_fast ship" speed="3.65" length="4.67" shape="694.98,499.00 695.19,500.43 694.87,501.26 694.01,501.51 692.61,501.16"/>
    </edge>
    <edge id=":1015346541_0" function="internal">
        <lane id=":1015346541_0_0" index="0" disallow="tram rail_urban rail rail_electric rail_fast ship" speed="3.47" length="1.09" shape="697.87,506.85 697.35,507.80"/>
    </edge>
    <edge id=":1015346553_0" function="internal">
        <lane id=":1015346553_0_0" index="0" disallow="tram rail_urban rail rail_electric rail_fast ship" speed="7.22" length="9.66" shape="719.85,512.09 717.44,512.42 715.54,513.51 714.15,515.34 713.26,517.93"/>
    </edge>
    <edge id=":1015346553_1" function="internal">
        <lane id=":1015346553_1_0" index="0" disallow="tram rail_urban rail rail_electric rail_fast ship" speed="8.94" length="14.42" shape="719.85,512.09 716.16,512.08 712.58,512.01 709.07,511.57 705.62,510.49"/>
    </edge>
    <edge id=":1015346553_2" function="internal">
        <lane id=":1015346553_2_0" index="0" disallow="tram rail_urban rail rail_electric rail_fast ship" speed="3.65" length="2.34" shape="719.85,512.09 718.66,511.27 718.27,510.46"/>
    </edge>
    <edge id=":1015346553_9" function="internal">
        <lane id=":1015346553_9_0" index="0" disallow="tram rail_urban rail rail_electric rail_fast ship" speed="3.65" length="2.34" shape="718.27,510.46 718.68,509.67 719.90,508.89"/>
    </edge>
    <edge id=":1015346553_3" function="internal">
        <lane id=":1015346553_3_0" index="0" disallow="tram rail_urban rail rail_electric rail_fast ship" speed="8.94" length="14.26" shape="705.85,507.10 709.28,508.21 712.72,508.71 716.24,508.86 719.90,508.89"/>
    </edge>
    <edge id=":1015346553_4" function="internal">
        <lane id=":1015346553_4_0" index="0" disallow="tram rail_urban rail rail_electric rail_fast ship" speed="8.68" length="5.65" shape="705.85,507.10 709.65,509.23 710.56,510.14"/>
    </edge>
    <edge id=":1015346553_5" function="internal">
        <lane id=":1015346553_5_0" index="0" disallow="tram rail_urban rail rail_electric rail_fast ship" speed="3.73" length="2.94" shape="705.85,507.10 707.06,508.03 707.43,508.91 707.20,509.31"/>
    </edge>
    <edge id=":1015346553_10" function="internal">
        <lane id=":1015346553_10_0" index="0" disallow="tram rail_urban rail rail_electric rail_fast ship" speed="8.68" length="8.69" shape="710.56,510.14 712.16,511.75 713.36,514.65 713.26,517.93"/>
    </edge>
    <edge id=":1015346553_11" function="internal">
        <lane id=":1015346553_11_0" index="0" disallow="tram rail_urban rail rail_electric rail_fast ship" speed="3.73" length="2.02" shape="707.20,509.31 706.95,509.73 705.62,510.49"/>
    </edge>
    <edge id=":1015346553_6" function="internal">
        <lane id=":1015346553_6_0" index="0" disallow="tram rail_urban rail rail_electric rail_fast ship" speed="6.96" length="8.89" shape="710.13,517.26 710.20,515.19 709.48,513.37 707.95,511.80 705.62,510.49"/>
    </edge>
    <edge id=":1015346553_7" function="internal">
        <lane id=":1015346553_7_0" index="0" disallow="tram rail_urban rail rail_electric rail_fast ship" speed="8.61" length="14.11" shape="710.13,517.26 711.43,513.55 713.49,510.92 716.31,509.36 719.90,508.89"/>
    </edge>
    <edge id=":1015346553_8" function="internal">
        <lane id=":1015346553_8_0" index="0" disallow="tram rail_urban rail rail_electric rail_fast ship" speed="3.65" length="4.67" shape="710.13,517.26 711.17,516.25 712.03,516.03 712.73,516.59 713.26,517.93"/>
    </edge>
    <edge id=":1015346574_0" function="internal">
        <lane id=":1015346574_0_0" index="0" allow="pedestrian delivery bicycle" speed="6.24" length="6.27" shape="545.53,432.57 543.95,432.75 542.65,433.38 541.61,434.47 540.83,436.01"/>
    </edge>
    <edge id=":1015346574_1" function="internal">
        <lane id=":1015346574_1_0" index="0" disallow="tram rail_urban rail rail_electric rail_fast ship" speed="8.94" length="9.88" shape="545.53,432.57 542.60,432.45 540.60,432.24 538.64,431.81 535.81,431.03"/>
    </edge>
    <edge id=":1015346574_2" function="internal">
        <lane id=":1015346574_2_0" index="0" disallow="tram rail_urban rail rail_electric rail_fast ship" speed="3.71" length="2.97" shape="545.53,432.57 544.09,432.10 543.47,431.40 543.57,430.89"/>
    </edge>
    <edge id=":1015346574_9" function="internal">
        <lane id=":1015346574_9_0" index="0" disallow="tram rail_urban rail rail_electric rail_fast ship" speed="3.71" length="1.93" shape="543.57,430.89 543.65,430.48 544.64,429.34"/>
    </edge>
    <edge id=":1015346574_3" function="internal">
        <lane id=":1015346574_3_0" index="0" disallow="tram rail_urban rail rail_electric rail_fast ship" speed="8.94" length="8.13" shape="536.67,427.95 538.99,428.61 540.60,429.00 542.24,429.22 544.64,429.34"/>
    </edge>
    <edge id=":1015346574_4" function="internal">
        <lane id=":1015346574_4_0" index="0" allow="pedestrian delivery bicycle" speed="6.80" length="4.94" shape="536.67,427.95 539.34,429.13 540.70,430.62"/>
    </edge>
    <edge id=":1015346574_5" function="internal">
        <lane id=":1015346574_5_0" index="0" disallow="tram rail_urban rail rail_electric rail_fast ship" speed="3.65" length="2.34" shape="536.67,427.95 537.61,429.04 537.78,429.92"/>
    </edge>
    <edge id=":1015346574_10" function="internal">
        <lane id=":1015346574_10_0" index="0" allow="pedestrian delivery bicycle" speed="6.80" length="5.59" shape="540.70,430.62 540.92,430.86 541.42,433.16 540.83,436.01"/>
    </edge>
    <edge id=":1015346574_11" function="internal">
        <lane id=":1015346574_11_0" index="0" disallow="tram rail_urban rail rail_electric rail_fast ship" speed="3.65" length="2.34" shape="537.78,429.92 537.18,430.59 535.81,431.03"/>
    </edge>
    <edge id=":1015346574_6" function="internal">
        <lane id=":1015346574_6_0" index="0" allow="pedestrian delivery bicycle" speed="4.96" length="5.09" shape="537.82,434.93 538.11,433.55 537.86,432.44 537.10,431.60 535.81,431.03"/>
    </edge>
    <edge id=":1015346574_7" function="internal">
        <lane id=":1015346574_7_0" index="0" allow="pedestrian delivery bicycle" speed="7.25" length="9.48" shape="537.82,434.93 539.02,432.43 540.56,430.66 542.43,429.63 544.64,429.34"/>
    </edge>
    <edge id=":1015346574_8" function="internal">
        <lane id=":1015346574_8_0" index="0" allow="pedestrian delivery bicycle" speed="3.65" length="4.67" shape="537.82,434.93 538.98,434.07 539.87,433.97 540.49,434.61 540.83,436.01"/>
    </edge>
    <edge id=":1022548035_0" function="internal">
        <lane id=":1022548035_0_0" index="0" disallow="tram rail_urban rail rail_electric rail_fast ship" speed="8.94" length="4.54" shape="936.25,787.29 940.61,788.53"/>
    </edge>
    <edge id=":1022548134_0" function="internal">
        <lane id=":1022548134_0_0" index="0" disallow="tram rail_urban rail rail_electric rail_fast ship" speed="6.28" length="7.75" shape="905.98,777.94 906.73,780.69 907.64,782.60 908.71,783.69 909.94,783.95"/>
    </edge>
    <edge id=":1022548134_1" function="internal">
        <lane id=":1022548134_1_0" index="0" disallow="tram rail_urban rail rail_electric rail_fast ship" speed="8.94" length="7.40" shape="905.98,777.94 906.33,780.11 906.42,781.61 906.49,783.12 906.81,785.29"/>
    </edge>
    <edge id=":1022548134_2" function="internal">
        <lane id=":1022548134_2_0" index="0" disallow="tram rail_urban rail rail_electric rail_fast ship" speed="6.16" length="6.27" shape="903.78,783.96 904.67,783.56 906.55,783.63 908.58,783.86 909.94,783.95"/>
    </edge>
    <edge id=":1022548134_3" function="internal">
        <lane id=":1022548134_3_0" index="0" disallow="tram rail_urban rail rail_electric rail_fast ship" speed="3.86" length="4.83" shape="903.78,783.96 905.04,783.16 905.96,783.11 906.55,783.82 906.81,785.29"/>
    </edge>
    <edge id=":1022548410_0" function="internal">
        <lane id=":1022548410_0_0" index="0" disallow="tram rail_urban rail rail_electric rail_fast ship" speed="8.94" length="8.81" shape="441.26,227.53 438.77,226.84 437.16,226.06 435.66,225.03 433.49,223.57"/>
    </edge>
    <edge id=":1022548410_1" function="internal">
        <lane id=":1022548410_1_0" index="0" disallow="tram rail_urban rail rail_electric rail_fast ship" speed="3.65" length="2.34" shape="441.26,227.53 440.26,226.49 440.05,225.62"/>
    </edge>
    <edge id=":1022548410_4" function="internal">
        <lane id=":1022548410_4_0" index="0" disallow="tram rail_urban rail rail_electric rail_fast ship" speed="3.65" length="2.34" shape="440.05,225.62 440.62,224.93 441.96,224.41"/>
    </edge>
    <edge id=":1022548410_2" function="internal">
        <lane id=":1022548410_2_0" index="0" disallow="tram rail_urban rail rail_electric rail_fast ship" speed="8.94" length="7.73" shape="435.19,220.86 437.09,222.15 438.39,223.08 439.79,223.79 441.96,224.41"/>
    </edge>
    <edge id=":1022548410_3" function="internal">
        <lane id=":1022548410_3_0" index="0" disallow="tram rail_urban rail rail_electric rail_fast ship" speed="3.65" length="2.34" shape="435.19,220.86 435.78,222.17 435.69,223.06"/>
    </edge>
    <edge id=":1022548410_5" function="internal">
        <lane id=":1022548410_5_0" index="0" disallow="tram rail_urban rail rail_electric rail_fast ship" speed="3.65" length="2.34" shape="435.69,223.06 434.93,223.53 433.49,223.57"/>
    </edge>
    <edge id=":1044211055_0" function="internal">
        <lane id=":1044211055_0_0" index="0" disallow="tram rail_urban rail rail_electric rail_fast ship" speed="8.94" length="4.19" shape="146.25,584.24 144.70,588.14"/>
    </edge>
    <edge id=":1044211055_1" function="internal">
        <lane id=":1044211055_1_0" index="0" disallow="tram rail_urban rail rail_electric rail_fast ship" speed="3.65" length="2.34" shape="146.25,584.24 145.05,585.04 144.16,585.11"/>
    </edge>
    <edge id=":1044211055_4" function="internal">
        <lane id=":1044211055_4_0" index="0" disallow="tram rail_urban rail rail_electric rail_fast ship" speed="3.65" length="2.34" shape="144.16,585.11 143.58,584.43 143.30,583.02"/>
    </edge>
    <edge id=":1044211055_2" function="internal">
        <lane id=":1044211055_2_0" index="0" disallow="tram rail_urban rail rail_electric rail_fast ship" speed="8.94" length="4.26" shape="141.72,586.98 143.30,583.02"/>
    </edge>
    <edge id=":1044211055_3" function="internal">
        <lane id=":1044211055_3_0" index="0" disallow="tram rail_urban rail rail_electric rail_fast ship" speed="3.65" length="2.34" shape="141.72,586.98 142.90,586.15 143.79,586.07"/>
    </edge>
    <edge id=":1044211055_5" function="internal">
        <lane id=":1044211055_5_0" index="0" disallow="tram rail_urban rail rail_electric rail_fast ship" speed="3.65" length="2.34" shape="143.79,586.07 144.39,586.73 144.70,588.14"/>
    </edge>
    <edge id=":1044211088_0" function="internal">
        <lane id=":1044211088_0_0" index="0" disallow="tram rail_urban rail rail_electric rail_fast ship" speed="8.94" length="2.87" shape="369.43,647.24 369.04,648.00 368.68,648.51 368.42,649.02 368.34,649.84"/>
    </edge>
    <edge id=":1044211088_1" function="internal">
        <lane id=":1044211088_1_0" index="0" disallow="tram rail_urban rail rail_electric rail_fast ship" speed="5.79" length="3.07" shape="365.87,648.03 368.34,649.84"/>
    </edge>
    <edge id=":1044211094_0" function="internal">
        <lane id=":1044211094_0_0" index="0" disallow="tram rail_urban rail rail_electric rail_fast ship" speed="8.94" length="6.42" shape="357.33,732.02 355.31,738.11"/>
    </edge>
    <edge id=":1044211094_1" function="internal">
        <lane id=":1044211094_1_0" index="0" disallow="tram rail_urban rail rail_electric rail_fast ship" speed="3.65" length="2.34" shape="357.33,732.02 356.19,732.90 355.30,733.03"/>
    </edge>
    <edge id=":1044211094_4" function="internal">
        <lane id=":1044211094_4_0" index="0" disallow="tram rail_urban rail rail_electric rail_fast ship" speed="3.65" length="2.34" shape="355.30,733.03 354.67,732.40 354.30,731.00"/>
    </edge>
    <edge id=":1044211094_2" function="internal">
        <lane id=":1044211094_2_0" index="0" disallow="tram rail_urban rail rail_electric rail_fast ship" speed="8.94" length="6.24" shape="352.33,736.93 354.30,731.00"/>
    </edge>
    <edge id=":1044211094_3" function="internal">
        <lane id=":1044211094_3_0" index="0" disallow="tram rail_urban rail rail_electric rail_fast ship" speed="3.65" length="2.23" shape="352.33,736.93 353.52,736.11 354.31,736.04"/>
    </edge>
    <edge id=":1044211094_5" function="internal">
        <lane id=":1044211094_5_0" index="0" disallow="tram rail_urban rail rail_electric rail_fast ship" speed="3.65" length="2.44" shape="354.31,736.04 354.41,736.03 355.01,736.70 355.31,738.11"/>
    </edge>
    <edge id=":1044211107_0" function="internal">
        <lane id=":1044211107_0_0" index="0" disallow="tram rail_urban rail rail_electric rail_fast ship" speed="8.94" length="5.77" shape="86.00,710.21 82.19,714.55"/>
    </edge>
    <edge id=":1044211107_1" function="internal">
        <lane id=":1044211107_1_0" index="0" disallow="tram rail_urban rail rail_electric rail_fast ship" speed="3.65" length="2.34" shape="86.00,710.21 84.60,710.56 83.74,710.32"/>
    </edge>
    <edge id=":1044211107_4" function="internal">
        <lane id=":1044211107_4_0" index="0" disallow="tram rail_urban rail rail_electric rail_fast ship" speed="3.65" length="2.34" shape="83.74,710.32 83.41,709.49 83.63,708.06"/>
    </edge>
    <edge id=":1044211107_2" function="internal">
        <lane id=":1044211107_2_0" index="0" disallow="tram rail_urban rail rail_electric rail_fast ship" speed="8.94" length="5.53" shape="79.99,712.23 81.15,711.06 81.87,710.20 82.56,709.31 83.63,708.06"/>
    </edge>
    <edge id=":1044211107_3" function="internal">
        <lane id=":1044211107_3_0" index="0" disallow="tram rail_urban rail rail_electric rail_fast ship" speed="3.65" length="2.17" shape="79.99,712.23 81.42,711.98 82.10,712.23"/>
    </edge>
    <edge id=":1044211107_5" function="internal">
        <lane id=":1044211107_5_0" index="0" disallow="tram rail_urban rail rail_electric rail_fast ship" speed="3.65" length="2.50" shape="82.10,712.23 82.26,712.29 82.51,713.15 82.19,714.55"/>
    </edge>
    <edge id=":1044211113_0" function="internal">
        <lane id=":1044211113_0_0" index="0" disallow="tram rail_urban rail rail_electric rail_fast ship" speed="3.77" length="4.63" shape="373.14,677.42 373.05,679.07 373.23,679.65 373.67,679.16 374.38,677.60"/>
    </edge>
    <edge id=":1044211113_1" function="internal">
        <lane id=":1044211113_1_0" index="0" disallow="tram rail_urban rail rail_electric rail_fast ship" speed="8.94" length="8.11" shape="373.14,677.42 373.15,679.83 373.47,681.51 373.63,683.15 373.13,685.44"/>
    </edge>
    <edge id=":1044211113_2" function="internal">
        <lane id=":1044211113_2_0" index="0" disallow="tram rail_urban rail rail_electric rail_fast ship" speed="8.94" length="8.09" shape="370.11,684.40 371.12,682.26 372.17,680.97 373.26,679.70 374.38,677.60"/>
    </edge>
    <edge id=":1044211145_0" function="internal">
        <lane id=":1044211145_0_0" index="0" disallow="tram rail_urban rail rail_electric rail_fast ship" speed="8.94" length="5.19" shape="119.12,569.92 114.09,568.63"/>
    </edge>
    <edge id=":1044211145_1" function="internal">
        <lane id=":1044211145_1_0" index="0" disallow="tram rail_urban rail rail_electric rail_fast ship" speed="3.65" length="4.67" shape="119.12,569.92 118.20,568.80 118.06,567.92 118.67,567.27 120.06,566.86"/>
    </edge>
    <edge id=":1044211145_2" function="internal">
        <lane id=":1044211145_2_0" index="0" disallow="tram rail_urban rail rail_electric rail_fast ship" speed="8.94" length="5.41" shape="114.82,565.51 120.06,566.86"/>
    </edge>
    <edge id=":1044211145_3" function="internal">
        <lane id=":1044211145_3_0" index="0" disallow="tram rail_urban rail rail_electric rail_fast ship" speed="3.65" length="4.67" shape="114.82,565.51 115.80,566.56 116.01,567.43 115.44,568.12 114.09,568.63"/>
    </edge>
    <edge id=":1052953619_0" function="internal">
        <lane id=":1052953619_0_0" index="0" disallow="tram rail_urban rail rail_electric rail_fast ship" speed="27.78" length="13.24" shape="388.50,628.79 386.82,631.68 384.44,633.72 381.78,635.61 379.27,638.06"/>
    </edge>
    <edge id=":1052953619_1" function="internal">
        <lane id=":1052953619_1_0" index="0" disallow="tram rail_urban rail rail_electric rail_fast ship" speed="3.65" length="2.18" shape="388.50,628.79 387.36,629.67 386.63,629.78"/>
    </edge>
    <edge id=":1052953619_4" function="internal">
        <lane id=":1052953619_4_0" index="0" disallow="tram rail_urban rail rail_electric rail_fast ship" speed="3.65" length="2.49" shape="386.63,629.78 386.48,629.80 385.84,629.16 385.47,627.77"/>
    </edge>
    <edge id=":1052953619_2" function="internal">
        <lane id=":1052953619_2_0" index="0" disallow="tram rail_urban rail rail_electric rail_fast ship" speed="5.84" length="13.59" shape="383.34,640.17 384.49,635.46 384.20,633.54 382.46,634.40 379.27,638.06"/>
    </edge>
    <edge id=":1052953619_3" function="internal">
        <lane id=":1052953619_3_0" index="0" disallow="tram rail_urban rail rail_electric rail_fast ship" speed="27.78" length="12.61" shape="383.34,640.17 384.07,636.88 384.36,633.96 384.67,631.04 385.47,627.77"/>
    </edge>
    <edge id=":1052953635_0" function="internal">
        <lane id=":1052953635_0_0" index="0" disallow="tram rail_urban rail rail_electric rail_fast ship" speed="8.94" length="10.93" shape="426.71,559.43 423.84,558.22 421.72,557.17 419.57,556.23 416.60,555.36"/>
    </edge>
    <edge id=":1052953635_1" function="internal">
        <lane id=":1052953635_1_0" index="0" allow="pedestrian delivery bicycle" speed="7.25" length="9.37" shape="426.71,559.43 420.53,556.47 419.07,554.42"/>
    </edge>
    <edge id=":1052953635_2" function="internal">
        <lane id=":1052953635_2_0" index="0" disallow="tram rail_urban rail rail_electric rail_fast ship" speed="3.65" length="2.34" shape="426.71,559.43 425.87,558.26 425.77,557.37"/>
    </edge>
    <edge id=":1052953635_9" function="internal">
        <lane id=":1052953635_9_0" index="0" allow="pedestrian delivery bicycle" speed="7.25" length="11.06" shape="419.07,554.42 418.63,553.80 420.99,551.43 427.62,549.35"/>
    </edge>
    <edge id=":1052953635_10" function="internal">
        <lane id=":1052953635_10_0" index="0" disallow="tram rail_urban rail rail_electric rail_fast ship" speed="3.65" length="2.34" shape="425.77,557.37 426.43,556.76 427.83,556.43"/>
    </edge>
    <edge id=":1052953635_3" function="internal">
        <lane id=":1052953635_3_0" index="0" allow="pedestrian delivery bicycle" speed="4.83" length="7.95" shape="428.18,552.51 425.60,553.32 424.68,554.24 425.42,555.28 427.83,556.43"/>
    </edge>
    <edge id=":1052953635_4" function="internal">
        <lane id=":1052953635_4_0" index="0" allow="pedestrian delivery bicycle" speed="7.25" length="12.13" shape="428.18,552.51 424.99,553.57 422.38,554.77 419.77,555.55 416.60,555.36"/>
    </edge>
    <edge id=":1052953635_5" function="internal">
        <lane id=":1052953635_5_0" index="0" allow="pedestrian delivery bicycle" speed="3.65" length="4.68" shape="428.18,552.51 426.85,551.93 426.32,551.21 426.58,550.35 427.62,549.35"/>
    </edge>
    <edge id=":1052953635_6" function="internal">
        <lane id=":1052953635_6_0" index="0" allow="pedestrian delivery bicycle" speed="7.25" length="10.94" shape="417.34,552.24 420.31,552.43 422.47,551.63 424.64,550.42 427.62,549.35"/>
    </edge>
    <edge id=":1052953635_7" function="internal">
        <lane id=":1052953635_7_0" index="0" disallow="tram rail_urban rail rail_electric rail_fast ship" speed="8.94" length="11.32" shape="417.34,552.24 420.37,553.14 422.65,554.11 424.90,555.20 427.83,556.43"/>
    </edge>
    <edge id=":1052953635_8" function="internal">
        <lane id=":1052953635_8_0" index="0" disallow="tram rail_urban rail rail_electric rail_fast ship" speed="3.65" length="2.34" shape="417.34,552.24 418.32,553.30 418.52,554.17"/>
    </edge>
    <edge id=":1052953635_11" function="internal">
        <lane id=":1052953635_11_0" index="0" disallow="tram rail_urban rail rail_electric rail_fast ship" speed="3.65" length="2.34" shape="418.52,554.17 417.95,554.86 416.60,555.36"/>
    </edge>
    <edge id=":1052953636_0" function="internal">
        <lane id=":1052953636_0_0" index="0" disallow="tram rail_urban rail rail_electric rail_fast ship" speed="8.94" length="14.99" shape="612.27,854.30 608.58,853.69 604.90,852.97 601.25,852.14 597.62,851.19"/>
    </edge>
    <edge id=":1052953636_1" function="internal">
        <lane id=":1052953636_1_0" index="0" disallow="tram rail_urban rail rail_electric rail_fast ship" speed="7.88" length="14.48" shape="612.27,854.30 608.43,853.15 605.98,851.06 604.90,848.01 605.21,844.01"/>
    </edge>
    <edge id=":1052953636_2" function="internal">
        <lane id=":1052953636_2_0" index="0" disallow="tram rail_urban rail rail_electric rail_fast ship" speed="3.65" length="4.67" shape="612.27,854.30 611.20,853.33 610.93,852.48 611.44,851.75 612.74,851.14"/>
    </edge>
    <edge id=":1052953636_3" function="internal">
        <lane id=":1052953636_3_0" index="0" disallow="tram rail_urban rail rail_electric rail_fast ship" speed="6.35" length="9.04" shape="608.33,844.71 608.14,847.21 608.81,849.11 610.35,850.42 612.74,851.14"/>
    </edge>
    <edge id=":1052953636_4" function="internal">
        <lane id=":1052953636_4_0" index="0" disallow="tram rail_urban rail rail_electric rail_fast ship" speed="7.93" length="14.45" shape="608.33,844.71 606.92,848.46 604.66,850.79 601.56,851.70 597.62,851.19"/>
    </edge>
    <edge id=":1052953636_5" function="internal">
        <lane id=":1052953636_5_0" index="0" disallow="tram rail_urban rail rail_electric rail_fast ship" speed="3.65" length="4.67" shape="608.33,844.71 607.29,845.71 606.42,845.93 605.73,845.36 605.21,844.01"/>
    </edge>
    <edge id=":1052953636_6" function="internal">
        <lane id=":1052953636_6_0" index="0" disallow="tram rail_urban rail rail_electric rail_fast ship" speed="6.42" length="9.09" shape="598.48,848.11 600.95,848.42 602.90,847.85 604.32,846.38 605.21,844.01"/>
    </edge>
    <edge id=":1052953636_7" function="internal">
        <lane id=":1052953636_7_0" index="0" disallow="tram rail_urban rail rail_electric rail_fast ship" speed="8.94" length="14.59" shape="598.48,848.11 602.04,849.04 605.56,849.85 609.11,850.54 612.74,851.14"/>
    </edge>
    <edge id=":1052953636_8" function="internal">
        <lane id=":1052953636_8_0" index="0" disallow="tram rail_urban rail rail_electric rail_fast ship" speed="3.65" length="4.67" shape="598.48,848.11 599.42,849.20 599.59,850.08 598.99,850.74 597.62,851.19"/>
    </edge>
    <edge id=":1052953667_0" function="internal">
        <lane id=":1052953667_0_0" index="0" disallow="tram rail_urban rail rail_electric rail_fast ship" speed="3.65" length="4.67" shape="666.93,856.12 666.02,857.24 665.19,857.56 664.43,857.08 663.75,855.81"/>
    </edge>
    <edge id=":1052953675_0" function="internal">
        <lane id=":1052953675_0_0" index="0" allow="pedestrian delivery bicycle" speed="5.05" length="5.03" shape="426.20,531.47 424.84,531.20 423.73,531.42 422.85,532.13 422.21,533.35"/>
    </edge>
    <edge id=":1052953675_1" function="internal">
        <lane id=":1052953675_1_0" index="0" allow="pedestrian delivery bicycle" speed="6.85" length="10.22" shape="426.20,531.47 423.72,530.17 422.25,528.39 421.82,526.13 422.40,523.38"/>
    </edge>
    <edge id=":1052953675_2" function="internal">
        <lane id=":1052953675_2_0" index="0" allow="pedestrian delivery bicycle" speed="3.65" length="4.67" shape="426.20,531.47 425.34,530.32 425.23,529.43 425.87,528.81 427.27,528.45"/>
    </edge>
    <edge id=":1052953675_3" function="internal">