<?xml version="1.0" encoding="UTF-8"?>

<!-- generated on 10/14/20 15:46:51 by Eclipse SUMO polyconvert Version 1.7.0
<configuration xmlns:xsi="http://www.w3.org/2001/XMLSchema-instance" xsi:noNamespaceSchemaLocation="http://sumo.dlr.de/xsd/polyconvertConfiguration.xsd">

    <input>
        <net-file value="test.net.xml"/>
        <osm-files value="map.osm"/>
        <type-file value="typemap.xml"/>
    </input>

    <output>
        <output-file value="map.poly.xml"/>
    </output>

    <processing>
        <poi-layer-offset value="5"/>
    </processing>

    <report>
        <xml-validation value="never"/>
    </report>

</configuration>
-->

<additional xmlns:xsi="http://www.w3.org/2001/XMLSchema-instance" xsi:noNamespaceSchemaLocation="http://sumo.dlr.de/xsd/additional_file.xsd">
    <location netOffset="-526019.91,-5700038.92" convBoundary="-718.47,-335.87,1467.45,2677.75" origBoundary="-2.635729,51.447882,-2.604412,51.475014" projParameter="+proj=utm +zone=30 +ellps=WGS84 +datum=WGS84 +units=m +no_defs"/>

    <e1Detector id="det_0" lane="4757146#0_0" pos="10" freq="500" file="DetectorOutput.out.xml" />  <!-- Code for how you add detector. Lane you get from test.net.xml, position based on length of road tells you where in the lane to put the detector in-->

    <poly id="103198732" type="amenity" color="237,199,199" fill="1" layer="-1.00" shape="294.519045,499.263403 292.108971,504.455802 284.463369,500.924135 286.873437,495.731733 294.519045,499.263403"/>
    <poly id="103198732#1" type="building" color="255,230,230" fill="1" layer="-1.00" shape="294.519045,499.263403 292.108971,504.455802 284.463369,500.924135 286.873437,495.731733 294.519045,499.263403"/>
    <poly id="103198943" type="amenity" color="237,199,199" fill="1" layer="-1.00" shape="316.636070,430.602496 310.050730,427.598988 305.096174,438.427936 311.681503,441.431437 318.813766,444.815908 323.984427,433.854634 319.908784,431.931767 318.134328,431.099594 316.636070,430.602496"/>
    <poly id="103198943#1" type="building" color="255,230,230" fill="1" layer="-1.00" shape="316.636070,430.602496 310.050730,427.598988 305.096174,438.427936 311.681503,441.431437 318.813766,444.815908 323.984427,433.854634 319.908784,431.931767 318.134328,431.099594 316.636070,430.602496"/>
    <poly id="103368222" type="building" color="255,230,230" fill="1" layer="-1.00" shape="307.383179,551.067108 304.183443,558.479715 334.437760,571.470483 333.194563,574.055354 338.318989,576.028151 339.340259,573.364281 358.016028,581.546362 361.208938,574.122631 307.383179,551.067108"/>
    <poly id="103368227" type="building" color="255,230,230" fill="1" layer="-1.00" shape="535.048379,573.169360 534.174683,572.831157 531.259029,580.334078 523.742466,577.425526 528.446898,565.327631 529.024401,563.840363 537.414677,567.087127 535.048379,573.169360"/>
    <poly id="103368229" type="amenity" color="237,199,199" fill="1" layer="-1.00" shape="148.926641,747.889958 147.478926,760.549895 151.867384,761.050684 151.656466,762.884646 167.974290,764.748023 168.279998,762.047074 176.647225,763.002098 177.963943,751.509251 169.936904,750.600462 170.155177,748.688688 154.365039,746.883625 154.183111,748.484185 148.926641,747.889958"/>
    <poly id="103368229#1" type="building" color="255,230,230" fill="1" layer="-1.00" shape="148.926641,747.889958 147.478926,760.549895 151.867384,761.050684 151.656466,762.884646 167.974290,764.748023 168.279998,762.047074 176.647225,763.002098 177.963943,751.509251 169.936904,750.600462 170.155177,748.688688 154.365039,746.883625 154.183111,748.484185 148.926641,747.889958"/>
    <poly id="103369449" type="building" color="255,230,230" fill="1" layer="-1.00" shape="490.157107,710.486022 495.665892,697.324622 488.622046,694.396340 483.113276,707.557747 490.157107,710.486022"/>
    <poly id="107101129" type="building" color="255,230,230" fill="1" layer="-1.00" shape="1114.929688,360.859896 1115.708101,358.217127 1123.963777,360.641148 1125.237584,356.310554 1134.533888,359.040422 1137.414083,349.257743 1123.851069,345.292871 1123.136310,347.724669 1121.749315,352.432791 1113.013486,350.139672 1113.407814,343.947097 1091.694408,342.563546 1091.580529,344.375744 1086.600190,344.060061 1086.092670,351.942504 1091.399448,352.282169 1091.217290,355.172789 1106.484719,356.143851 1106.257307,359.701521 1114.929688,360.859896"/>
    <poly id="107101129#1" type="leisure" color="207,245,201" fill="1" layer="-2.00" shape="1114.929688,360.859896 1115.708101,358.217127 1123.963777,360.641148 1125.237584,356.310554 1134.533888,359.040422 1137.414083,349.257743 1123.851069,345.292871 1123.136310,347.724669 1121.749315,352.432791 1113.013486,350.139672 1113.407814,343.947097 1091.694408,342.563546 1091.580529,344.375744 1086.600190,344.060061 1086.092670,351.942504 1091.399448,352.282169 1091.217290,355.172789 1106.484719,356.143851 1106.257307,359.701521 1114.929688,360.859896"/>
    <poly id="107103416" type="building" color="255,230,230" fill="1" layer="-1.00" shape="1114.008624,375.924624 1119.526437,391.412933 1115.663448,392.660189 1117.072357,396.871629 1120.162615,395.898291 1129.361190,423.450829 1127.683075,424.120290 1128.961255,428.086364 1126.839412,428.575515 1128.608543,434.290283 1129.812545,437.833344 1132.421286,437.246698 1133.736521,442.080448 1135.462971,441.466854 1142.847387,465.206186 1140.070600,466.036603 1141.788747,470.883626 1144.586673,469.997716 1150.410656,486.666576 1149.484905,486.973037 1150.037901,488.811037 1150.887401,488.470805 1153.137739,495.144601 1164.002015,489.152514 1166.100673,491.699427 1179.453281,480.348975 1182.066291,477.660413 1183.030471,476.664630 1187.453077,472.106208 1196.241003,463.311592 1202.950878,455.918308 1200.834256,450.235019 1198.216543,451.199713 1189.442637,424.872681 1188.691304,422.444176 1189.651512,422.193515 1188.620537,418.784822 1189.428303,418.455495 1187.866133,413.030971 1185.166036,413.806166 1183.867170,409.817724 1175.774983,384.617635 1177.361365,384.214615 1172.770318,370.866523 1163.220711,373.940657 1165.289601,380.769189 1165.797590,380.627323 1172.528304,401.860866 1171.895309,401.990943 1173.209268,407.058247 1173.960677,406.873196 1180.453605,427.082302 1179.242612,427.453962 1185.630319,447.840458 1187.246079,447.137318 1188.169447,449.878144 1180.829158,455.622096 1181.827173,458.696965 1178.931779,460.916915 1176.987334,459.416243 1159.034531,476.047094 1156.221517,466.745615 1157.439921,466.285017 1156.005055,461.739781 1152.936801,462.501906 1145.258293,439.194728 1147.088254,438.715149 1145.793045,434.037203 1147.679246,433.435588 1144.669914,423.154376 1143.103857,423.657608 1142.091856,420.593793 1140.386302,421.196375 1130.519269,392.617072 1133.755444,391.644521 1132.400649,387.711403 1131.802158,387.886154 1130.260524,382.506244 1158.116115,386.491822 1153.930271,372.723293 1136.628919,371.396469 1136.866688,368.506147 1129.825728,367.623352 1129.761474,367.945533 1124.685309,367.362384 1124.599440,367.829030 1121.251062,367.688838 1121.608889,370.949347 1122.055125,371.963783 1114.147576,374.624149 1113.706864,373.876658 1111.800156,374.411448 1112.463460,376.416855 1114.008624,375.924624"/>
    <poly id="108399069" type="building" color="255,230,230" fill="1" layer="-1.00" shape="829.639668,615.575284 825.934076,608.104330 836.111725,603.075496 835.183621,601.202187 845.145322,596.283446 849.002162,604.055493 845.365805,605.849103 846.149526,607.432493 829.639668,615.575284"/>
    <poly id="108399070" type="amenity" color="237,199,199" fill="1" layer="-1.00" shape="855.413032,603.155135 871.017926,595.352412 869.003289,591.349149 864.822737,583.041545 862.024252,577.477133 857.724391,582.548073 862.516915,592.071148 852.387617,597.144670 855.413032,603.155135"/>
    <poly id="108399070#1" type="building" color="255,230,230" fill="1" layer="-1.00" shape="855.413032,603.155135 871.017926,595.352412 869.003289,591.349149 864.822737,583.041545 862.024252,577.477133 857.724391,582.548073 862.516915,592.071148 852.387617,597.144670 855.413032,603.155135"/>
    <poly id="117695722" type="building" color="255,230,230" fill="1" layer="-1.00" shape="473.197422,419.459384 470.036626,430.008352 479.437010,432.804293 478.977452,434.325545 488.121091,437.053436 486.310930,443.082980 488.031450,443.592407 489.349617,443.977403 489.540517,443.344472 503.963630,447.634658 502.669530,451.965297 499.464443,451.003270 497.873314,456.333297 500.800939,457.204906 498.693678,464.244954 511.833247,468.161466 512.674849,465.329872 512.182290,465.182725 513.822822,459.708380 510.485845,458.723415 513.583073,448.385449 511.196584,447.672354 512.228976,444.230073 514.906879,445.022537 515.833255,441.924470 515.215802,441.743307 516.121044,438.700737 519.187406,439.617565 518.034862,443.448471 533.602586,448.089475 535.357782,448.610221 537.150490,444.604715 545.800620,440.701724 552.321395,437.410435 543.136997,437.173430 538.725013,437.139286 531.669865,436.312851 520.913707,433.687688 508.453927,429.974883 507.605374,432.806442 495.693614,429.263347 497.064954,424.777408 494.889098,423.642802 492.596744,422.196188 488.990965,419.452642 488.496488,421.007076 482.934693,418.942880 483.376247,416.876581 482.188871,415.391240 480.506035,414.314815 477.833148,413.889404 475.922991,413.768246 474.054641,414.959641 472.787305,416.821456 472.281254,419.265550 473.197422,419.459384"/>
    <poly id="117695723" type="building" color="255,230,230" fill="1" layer="-1.00" shape="515.688004,413.808575 518.481722,415.046505 521.044933,416.516786 524.261845,417.879262 528.149256,418.577947 532.968121,419.203644 536.053145,419.208617 539.535721,418.926508 543.408843,418.368402 546.621837,417.817974 549.189584,417.086237 545.321041,403.453336 541.660933,393.814142 548.202707,391.835294 547.171744,389.672343 553.742828,387.404495 554.514500,389.988710 562.386346,387.449628 559.193760,377.434733 551.900457,379.620952 551.353892,377.838660 523.907521,387.226577 530.830655,406.714178 529.202644,407.117181 529.736129,408.743702 526.277465,408.436503 523.543669,407.699349 520.806230,406.328252 519.622505,405.476847 513.085225,397.268467 502.973206,403.021185 508.814363,408.812559 514.215540,411.031647 516.443166,411.565971 515.688004,413.808575"/>
    <poly id="126417911" type="tourism" color="207,245,201" fill="1" layer="-2.00" shape="146.649535,716.460034 206.867272,711.009055 234.103753,705.488640 250.806836,701.393149 277.669113,693.012811 317.801761,679.318467 352.277287,665.951009 356.005360,663.846122 358.273185,659.286941 360.248111,654.937551 358.873333,650.737622 355.409369,647.461072 345.474658,645.941560 267.350099,631.390915 251.712939,628.151671 241.471361,625.496387 234.218320,622.667473 162.010115,591.088607 138.072049,580.655902 152.930619,539.427075 68.626304,510.100634 33.361302,487.610299 11.218582,472.427392 7.249557,467.302333 4.292702,459.902548 2.131591,449.070294 0.905825,436.040769 -10.055260,435.395306 -13.590885,439.269760 -21.223441,450.808233 -30.270263,460.370994 -41.030768,466.722036 -49.062644,470.751510 -52.399471,473.804015 -59.411871,493.197477 -61.897702,499.690868 -12.620405,532.183607 -17.571371,553.344743 -25.097160,554.896673 -28.477414,561.018471 -30.336460,571.307474 -30.343574,579.503974 -27.686882,581.730716 -22.532564,581.957228 -18.686564,577.150149 -11.035799,575.609988 -4.172575,575.900859 3.298833,578.185594 6.138782,581.258524 6.437552,582.616874 6.074291,585.717911 1.372444,585.326861 -7.399903,584.725945 -15.567981,586.886261 -19.660391,592.326004 -26.802003,601.653818 -29.702292,604.953210 -31.171415,605.557390 -32.741519,605.527130 -53.407266,599.160258 -60.223869,601.994829 -64.869612,601.504034 -73.525695,601.270833 -105.757661,601.262322 -106.134826,615.295717 -103.776033,631.000144 -114.189172,655.191971 -138.539394,673.841156 -146.139854,672.356719 -153.537085,671.896502 -159.231711,668.631212 -162.080254,675.445331 -162.890212,680.334670 -163.451765,701.974229 -165.007894,708.772673 -167.206315,714.811594 -165.925397,718.421463 -160.888653,722.617609 -170.922834,721.532338 -219.090753,711.589989 -257.861660,716.031249 -271.306157,750.428695 -285.937122,794.162225 -301.618492,838.201892 -302.010417,867.638486 -297.598010,897.755529 -283.888307,959.182091 -281.948797,1060.608763 -303.626179,1179.120995 -240.382141,1262.151548 -255.936909,1262.172863 -272.149649,1265.916596 -283.921484,1276.200034 -277.339145,1297.497627 -278.695726,1322.591978 -282.597402,1338.564952 -279.167438,1356.788189 -276.306728,1363.942662 -277.103294,1375.838633 -286.111213,1411.092697 -287.244758,1436.054724 -294.801089,1461.785024 -295.242990,1483.236158 -295.302503,1496.381467 -294.955589,1512.954253 -297.619862,1523.294898 -299.277188,1529.581288 -300.236117,1533.758124 -301.049760,1536.678965 -304.074801,1541.434798 -324.043087,1575.098784 -415.184193,1557.189689 -451.767688,1737.285196 -422.033547,1811.214741 -460.125075,1854.964281 -477.045006,1886.519974 -498.104697,1954.077499 -514.204036,1964.773495 -524.798903,1974.863198 -529.495941,1982.079759 -535.505622,1992.036760 -540.468213,1996.805271 -551.743554,2006.869379 -569.061525,2023.787488 -576.915176,2030.254282 -586.507123,2038.469595 -619.584747,2039.939195 -643.411452,2036.094585 -662.440960,2041.115587 -679.425950,2056.823485 -682.954723,2061.043201 -685.382941,2064.645595 -687.092109,2068.918862 -688.186969,2073.973693 -689.090634,2078.295457 -688.449219,2082.002110 -686.795452,2084.668384 -684.976338,2086.212210 -703.699583,2120.462195 -718.471942,2145.256379 -715.488897,2154.379726 -714.067793,2164.718670 -710.973389,2172.396779 -702.359896,2187.631612 -650.862483,2239.024841 -596.567654,2284.994169 -508.789999,2374.161014 -468.924118,2417.423593 -311.989396,2285.556917 -246.288639,2318.275221 -128.767043,2371.443430 -109.878906,2381.771399 -54.756410,2422.190029 -45.114053,2431.336660 -10.482262,2471.840252 18.435017,2511.925578 29.623618,2531.011789 13.812964,2541.073669 -26.288567,2623.735034 -60.331363,2674.853632 -60.273208,2677.067112 -57.859742,2677.746722 -26.793231,2664.047973 1.570275,2649.279040 36.445236,2625.679762 59.696797,2609.672720 113.922405,2569.780098 282.132919,2452.803449 439.724384,2335.810436 598.515840,2223.177061 601.102941,2218.575165 601.312415,2214.383446 598.018437,2212.041810 597.896632,2208.771444 600.031807,2208.237662 603.659955,2203.796917 601.575858,2197.224309 593.935571,2185.239813 585.839587,2174.053696 560.854247,2134.341576 552.427183,2124.010141 516.156414,2089.166148 483.373636,2059.356395 427.907595,2012.913426 398.047859,1989.847952 369.225450,1968.956732 353.285328,1956.629283 342.497538,1947.309147 338.616537,1941.572578 335.598508,1935.517958 333.360298,1927.765788 331.394443,1918.391289 329.763455,1907.394783 328.053830,1895.485906 325.422849,1861.629510 327.146724,1853.352908 329.533118,1845.913852 346.311435,1807.831737 357.749131,1784.302291 363.062811,1773.653189 367.847961,1763.123688 370.433509,1754.807084 371.946483,1745.695291 371.874143,1736.875555 370.641995,1728.005317 367.387476,1719.313656 362.873494,1709.692381 357.705207,1703.003797 352.394809,1696.926165 346.988186,1690.647853 341.915757,1685.561281 333.575850,1678.289093 325.248545,1671.261658 306.408265,1662.077863 300.807306,1658.434394 296.871182,1655.244403 294.272170,1644.687768 288.782292,1638.364603 274.981495,1623.156885 261.485859,1608.028633 229.603427,1565.735773 194.587742,1520.691086 188.233287,1513.585073 181.453711,1508.089498 15.994433,1375.038863 -36.710949,1332.574487 -48.526575,1324.150799 -59.789694,1327.251830 -70.936939,1321.256092 -67.919742,1314.020262 -70.034033,1303.588635 -73.984332,1297.629611 -79.187296,1294.822710 -75.594439,1283.686164 -65.721564,1284.848661 -59.123498,1282.457833 -54.249904,1277.655969 -52.935695,1273.336412 -56.583826,1259.894149 -50.111337,1257.613906 -49.383676,1260.687153 -45.854913,1263.485539 -42.412567,1264.159279 -37.654198,1262.882358 -34.599500,1260.562441 14.620498,1181.918115 17.346698,1177.283278 17.217078,1172.745043 15.064544,1168.452253 -91.086484,1083.253451 -101.883143,1068.329014 -117.232272,1056.495444 -121.786315,1010.762930 -117.850942,971.935587 -88.092767,848.861012 -61.655548,799.594129 -47.143932,774.177712 -24.265615,755.299014 0.079515,743.089690 52.856565,723.886059 72.734460,714.401205 89.081836,711.893733 85.509920,717.447277 86.306601,720.609867 90.212456,721.742053 146.649535,716.460034"/>
    <poly id="131507111" type="residential" color="235,235,227" fill="1" layer="-3.00" shape="960.633710,354.267631 978.601039,364.983935 992.392429,409.721058 1001.861605,419.146747 998.175716,434.163452 994.923337,444.744982 991.873141,457.818803 971.573427,462.471118 849.707792,387.467977 852.755157,376.184621 835.045597,341.592266 841.091923,325.564725 852.868618,317.841837 864.733726,327.591317 886.458732,342.575553 891.662152,345.383437 922.229334,345.178129 943.642872,348.083014 960.633710,354.267631"/>
    <poly id="134964560" type="building" color="255,230,230" fill="1" layer="-1.00" shape="526.184573,499.521061 521.174109,509.003810 519.344824,508.037823 516.243135,513.904922 531.944645,522.161107 534.597266,517.136908 532.165078,515.867490 535.673829,509.224019 534.967048,508.853322 537.254726,504.527875 530.914531,501.191714 530.577662,501.835003 526.184573,499.521061"/>
    <poly id="136000050" type="leisure" color="207,245,201" fill="1" layer="-2.00" shape="834.990718,192.630642 848.776673,162.375071 876.678232,175.022983 862.885195,205.278442 834.990718,192.630642"/>
    <poly id="136000050#1" type="sport" color="79,230,125" fill="1" layer="-2.00" shape="834.990718,192.630642 848.776673,162.375071 876.678232,175.022983 862.885195,205.278442 834.990718,192.630642"/>
    <poly id="136000052" type="parking" color="184,184,179" fill="1" layer="-1.00" shape="715.204818,189.709072 740.208495,199.805315 729.261984,225.393947 721.719716,224.653664 718.180944,223.700869 716.090663,215.526712 715.639327,206.204530 715.204818,189.709072"/>
    <poly id="136000053" type="leisure" color="207,245,201" fill="1" layer="-2.00" shape="741.270280,205.349402 760.581793,156.227230 738.088912,146.978199 750.913044,118.507874 749.778994,94.991074 734.427711,89.983547 698.736565,85.125062 673.961449,86.974710 661.670824,68.081591 754.257640,40.130064 775.692264,40.609854 797.661158,45.196381 838.468953,64.140119 888.209784,88.870090 882.703608,98.594539 890.874209,102.752680 895.011442,104.865394 878.239991,137.207027 858.967061,128.786345 829.232045,194.935778 858.099830,207.488593 859.589177,209.676271 861.430131,212.388516 831.972622,231.284163 820.626275,217.978620 823.387581,210.875423 799.448845,201.796436 791.353229,222.995846 786.503214,221.657966 785.519370,223.754747 741.270280,205.349402"/>
    <poly id="136000849" type="residential" color="235,235,227" fill="1" layer="-3.00" shape="803.772463,252.922492 794.726203,251.462399 771.012799,248.445947 748.441845,242.232622 734.747525,236.699971 714.857691,221.403507 708.260358,177.005223 696.437258,155.156152 679.425473,106.410368 685.348888,88.602568 704.021101,79.169440 772.185761,69.151391 911.081997,123.612260 888.427980,171.159192 879.571966,191.531453 873.409296,201.908612 870.213189,205.806494 866.855141,208.791560 861.430131,212.388516 831.972622,231.284163 803.772463,252.922492"/>
    <poly id="136063495" type="unknown" color="51,128,255" fill="0" layer="-1.00" shape="599.903981,281.824684 708.758682,243.547738 727.511798,241.099422"/>
    <poly id="159641093" type="building" color="255,230,230" fill="1" layer="-1.00" shape="1085.924012,319.678125 1086.206918,314.830656 1094.417519,315.297003 1096.147104,315.406310 1095.986261,318.208072 1102.168496,318.563533 1102.053369,320.609277 1093.391318,320.107148 1085.924012,319.678125"/>
    <poly id="159641094" type="amenity" color="237,199,199" fill="1" layer="-1.00" shape="1090.272871,270.266206 1091.040851,260.450010 1100.758855,261.013368 1100.066399,270.996787 1090.272871,270.266206"/>
    <poly id="159641094#1" type="building" color="255,230,230" fill="1" layer="-1.00" shape="1090.272871,270.266206 1091.040851,260.450010 1100.758855,261.013368 1100.066399,270.996787 1090.272871,270.266206"/>
    <poly id="166068591" type="building" color="255,230,230" fill="1" layer="-1.00" shape="1077.745473,428.046997 1065.988072,430.820401 1060.694365,408.449131 1058.579410,408.949469 1057.145477,402.902864 1057.750735,402.761504 1056.976039,399.487661 1063.712620,397.499388 1067.324689,396.395337 1068.557980,400.972838 1070.005681,400.513440 1071.843383,407.718834 1068.587452,408.491132 1069.593166,412.744899 1071.450685,412.309925 1072.340824,416.084853 1070.378966,416.541514 1071.500191,421.285242 1075.897028,420.252104 1077.745473,428.046997"/>
    <poly id="178134295" type="building" color="255,230,230" fill="1" layer="-1.00" shape="100.050191,224.928970 103.069686,222.831383 109.222297,228.990899 110.107179,229.874038 106.867906,231.470026 108.730039,234.193226 106.875550,235.395949 103.999597,231.188389 100.050191,224.928970"/>
    <poly id="178180682" type="building" color="255,230,230" fill="1" layer="-1.00" shape="1102.514113,245.875234 1128.113206,240.551041 1124.223939,221.946270 1117.288505,223.388451 1119.016468,231.627574 1102.801363,234.999936 1103.214666,236.981766 1100.766054,237.491429 1102.514113,245.875234"/>
    <poly id="186395500" type="building" color="255,230,230" fill="1" layer="-1.00" shape="970.692639,759.577473 976.132951,759.550720 976.129779,758.838927 981.229657,758.810373 981.177569,746.365129 970.637412,746.409315 970.692639,759.577473"/>
    <poly id="186395501" type="building" color="255,230,230" fill="1" layer="-1.00" shape="936.999612,758.809461 937.270745,760.089870 939.208018,761.623778 945.162101,761.666443 945.224389,763.023597 950.441429,763.173577 950.494188,762.395351 950.562258,749.550371 943.399325,749.490174 943.016256,750.978427 939.438028,750.992835 939.121189,755.717798 937.138039,757.597950 936.999612,758.809461"/>
    <poly id="186395506" type="building" color="255,230,230" fill="1" layer="-1.00" shape="955.593826,762.411257 955.596471,763.223141 961.522879,763.243435 961.553477,749.608629 958.420017,749.603139 958.429096,747.890475 956.379473,747.890732 956.370454,749.592275 955.627053,749.588335 955.593826,762.411257"/>
    <poly id="186395507" type="amenity" color="237,199,199" fill="1" layer="-1.00" shape="981.229657,758.810373 985.704186,758.789628 985.706885,759.590391 991.598795,759.566051 991.543977,746.331165 981.177569,746.365129 981.229657,758.810373"/>
    <poly id="186395507#1" type="building" color="255,230,230" fill="1" layer="-1.00" shape="981.229657,758.810373 985.704186,758.789628 985.706885,759.590391 991.598795,759.566051 991.543977,746.331165 981.177569,746.365129 981.229657,758.810373"/>
    <poly id="186395508" type="amenity" color="237,199,199" fill="1" layer="-1.00" shape="926.219785,767.382665 934.230129,767.480690 933.532576,745.701084 925.641190,748.061543 926.219785,767.382665"/>
    <poly id="186395508#1" type="building" color="255,230,230" fill="1" layer="-1.00" shape="926.219785,767.382665 934.230129,767.480690 933.532576,745.701084 925.641190,748.061543 926.219785,767.382665"/>
    <poly id="186395509" type="building" color="255,230,230" fill="1" layer="-1.00" shape="1014.058961,761.297925 1014.032096,745.427389 1019.193394,745.610508 1018.892190,738.224226 1024.185501,738.408052 1024.114336,737.417859 1030.089586,737.405128 1030.025003,745.634701 1034.819551,745.537850 1034.832574,761.386070 1028.649100,761.364324 1028.656370,759.996417 1019.720499,760.171364 1019.790837,761.317253 1014.058961,761.297925"/>
    <poly id="186395517" type="forest" color="140,196,107" fill="1" layer="-4.00" shape="1141.144617,741.310799 1137.683327,748.054207 1129.441050,756.262394 1116.276550,766.368368 1102.076047,774.022122 1089.986610,777.972575 1075.808324,781.467075 1065.743066,782.369948 1047.852562,784.955050 1033.392603,785.245175 1009.327508,784.839272 996.572908,784.537998 993.176794,781.661743 994.689792,772.805931 994.256384,760.214083 995.270202,752.467772 995.451051,745.884799 997.456345,737.220667 996.315208,733.611241 990.456016,732.701543 984.741307,732.059535 983.625709,728.872864 991.005070,727.432862 997.418213,727.389052 1001.432254,729.045223 1003.040320,735.003768 1000.011640,744.051718 1002.886187,749.638855 1006.444100,753.450182 1004.317362,760.122916 1003.489625,761.608803 1007.589156,761.552722 1012.270355,764.480297 1012.844166,768.943070 1012.376383,771.987879 1010.959337,773.237083 1011.099331,774.349978 1011.611721,775.987561 1014.747196,774.302625 1027.027556,777.559746 1030.669508,778.624524 1033.456981,773.134193 1037.565963,771.298744 1043.521896,772.297984 1048.471289,766.596728 1056.137117,767.460496 1061.109930,771.724250 1062.822447,772.400654 1067.366975,772.280259 1071.832770,772.593189 1073.348240,768.519662 1071.802581,763.907129 1065.472913,763.940168 1062.061153,761.397429 1061.192186,756.265789 1064.027816,754.790596 1065.149941,754.129277 1064.645082,751.079296 1062.418584,749.065576 1060.640547,747.643683 1056.023124,747.096405 1054.541468,746.120952 1052.240551,743.728709 1051.831452,737.042506 1057.059048,735.213023 1062.414737,736.731801 1065.318103,736.891832 1067.863895,735.048088 1069.956904,733.424367 1071.321548,728.971905 1076.244903,728.175123 1094.649723,728.206414 1113.566776,728.596391 1128.767518,728.833155 1136.220444,729.239926 1140.233252,731.118631 1141.839553,737.377493 1141.144617,741.310799"/>
    <poly id="186395950" type="building" color="255,230,230" fill="1" layer="-1.00" shape="1122.129647,316.289931 1123.746775,311.427336 1114.091499,308.239593 1112.474379,313.102192 1122.129647,316.289931"/>
    <poly id="188001749" type="building" color="255,230,230" fill="1" layer="-1.00" shape="841.965482,466.812380 845.812646,463.273805 847.243675,464.649303 849.302687,462.891853 862.288766,478.719590 865.163082,479.146267 881.042761,465.439508 885.998606,471.682622 866.761756,486.928641 858.419284,486.484206 841.965482,466.812380"/>
    <poly id="188001752" type="leisure" color="207,245,201" fill="1" layer="-2.00" shape="839.349113,591.303786 860.683949,568.139113 809.642855,500.962851 799.055112,520.492014 815.390434,548.137195 839.349113,591.303786"/>
    <poly id="188001753" type="building" color="255,230,230" fill="1" layer="-1.00" shape="813.367265,445.575169 820.067135,436.023761 831.988231,444.338790 824.007115,455.729594 809.109260,445.330293 810.397381,443.502036 813.367265,445.575169"/>
    <poly id="188001754" type="building" color="255,230,230" fill="1" layer="-1.00" shape="905.167066,502.223538 908.813462,498.550490 907.997892,497.734305 910.952790,494.747133 922.656686,507.287400 919.355447,510.072545 918.741431,509.246303 914.964142,512.707343 905.167066,502.223538"/>
    <poly id="191758093" type="building" color="255,230,230" fill="1" layer="-1.00" shape="808.442035,215.979248 803.215035,230.798899 800.378128,229.838623 799.859426,228.056451 797.953801,225.744261 796.138420,224.767127 798.999217,215.918367 800.316307,216.514745 801.472721,213.317848 808.442035,215.979248"/>
    <poly id="200216271" type="building" color="255,230,230" fill="1" layer="-1.00" shape="1103.453304,449.081233 1103.808248,448.971909 1102.626201,445.217663 1098.248446,446.584525 1098.102300,446.628233 1099.291180,450.404757 1099.653132,450.284349 1101.946368,456.747042 1102.790833,457.352103 1105.477234,456.532306 1105.864357,455.600162 1103.453304,449.081233"/>
    <poly id="200216272" type="unknown" color="51,128,255" fill="0" layer="-1.00" shape="1098.248446,446.584525 1097.891396,444.480659 1096.720352,442.572642 1096.214133,441.079664 1096.091022,440.711998 1093.059993,431.876498 1089.506269,420.724943 1085.096847,398.024713 1081.922544,382.159667 1081.422567,370.357089 1081.688390,355.666998 1081.748180,354.877690"/>
    <poly id="200216273" type="unknown" color="51,128,255" fill="0" layer="-1.00" shape="1135.512744,507.673448 1133.986432,505.941471 1132.520290,507.257109 1131.331700,506.038524 1131.988372,505.374737 1126.708981,499.930402 1115.141444,487.968708 1108.780739,476.813296 1102.790833,457.352103"/>
    <poly id="210659361" type="amenity" color="237,199,199" fill="1" layer="-1.00" shape="1149.173556,521.870664 1162.161071,508.605320 1153.907846,500.564887 1166.100673,491.699427 1179.453281,480.348975 1182.066291,477.660413 1183.030471,476.664630 1196.241003,463.311592 1200.473760,468.272176 1201.868465,469.925618 1217.014943,458.373550 1206.172371,440.799167 1200.348879,430.558477 1196.063626,421.115646 1192.445351,406.482640 1190.800123,397.098415 1187.809948,370.246237 1176.670634,369.141285 1174.931744,369.476761 1166.189312,371.031556 1172.335392,336.520991 1172.486416,308.250933 1173.598987,301.595096 1165.024803,301.549297 1149.067857,351.622085 1148.778112,352.532501 1137.414083,349.257743 1123.851069,345.292871 1123.136310,347.724669 1113.407814,343.947097 1091.694408,342.563546 1089.837276,342.920664 1083.452860,342.697599 1081.859864,353.476975 1081.748180,354.877690 1081.688390,355.666998 1081.422567,370.357089 1081.922544,382.159667 1085.096847,398.024713 1089.506269,420.724943 1093.059993,431.876498 1096.091022,440.711998 1096.214133,441.079664 1096.720352,442.572642 1097.891396,444.480659 1098.248446,446.584525 1098.102300,446.628233 1099.291180,450.404757 1099.653132,450.284349 1101.946368,456.747042 1102.790833,457.352103 1108.780739,476.813296 1115.141444,487.968708 1126.708981,499.930402 1131.988372,505.374737 1131.331700,506.038524 1132.520290,507.257109 1133.986432,505.941471 1135.512744,507.673448 1136.162593,508.288598 1137.090184,508.938594 1138.018961,509.366167 1138.948035,509.738134 1139.829185,509.976388 1140.669359,510.080965 1140.739625,513.840409 1149.173556,521.870664"/>
    <poly id="220458716" type="building" color="255,230,230" fill="1" layer="-1.00" shape="786.878573,558.063028 783.257225,551.726944 794.463382,545.357741 798.084720,551.693834 786.878573,558.063028"/>